# AFLOW.org Repositories
# C48H30N6O30Zr6
data_C48H30N6O30Zr6
_pd_phase_name C48H30N6O30Zr6
_cell_length_a  14.9601214787
_cell_length_b  14.9601279746
_cell_length_c  35.1464674726
_cell_angle_alpha  89.9999886935
_cell_angle_beta  89.9999881487
_cell_angle_gamma  119.9999907484
_symmetry_space_group_name_H-M  'R3'
_symmetry_Int_Tables_Number  146
loop_
 _symmetry_equiv_pos_site_id
 _symmetry_equiv_pos_as_xyz
  1  x,y,z
  2  -y,x-y,z
  3  -x+y,-x,z
  4  x+2/3,y+1/3,z+1/3
  5  -y+2/3,x-y+1/3,z+1/3
  6  -x+y+2/3,-x+1/3,z+1/3
  7  x+1/3,y+2/3,z+2/3
  8  -y+1/3,x-y+2/3,z+2/3
  9  -x+y+1/3,-x+2/3,z+2/3
loop_
 _atom_site_label
 _atom_site_occupancy
 _atom_site_fract_x
 _atom_site_fract_y
 _atom_site_fract_z
 _atom_site_adp_type
 _atom_site_B_iso_or_equiv
 _atom_site_type_symbol
 _atom_site_symmetry_multiplicity
 _atom_site_Wyckoff_label
C1 1.0000000000 0.4759517387 0.2476987031 0.5654165727  Biso 1.0 C 9 b
C2 1.0000000000 0.8945886821 0.8054182157 0.4375441904  Biso 1.0 C 9 b
C3 1.0000000000 0.2688571040 0.1283409310 0.4695835265  Biso 1.0 C 9 b
C4 1.0000000000 0.3340517792 0.0867956626 0.4786681958  Biso 1.0 C 9 b
C5 1.0000000000 0.3401026207 0.2483150022 0.5230633630  Biso 1.0 C 9 b
C6 1.0000000000 0.8030859091 0.5962043956 0.5322311576  Biso 1.0 C 9 b
C7 1.0000000000 0.9344564245 0.7257329307 0.4921835091  Biso 1.0 C 9 b
C8 1.0000000000 0.3633087266 0.3373150245 0.6700750559  Biso 1.0 C 9 b
C9 1.0000000000 0.0736327195 0.3347330841 0.6664142540  Biso 1.0 C 9 b
C10 1.0000000000 0.6911901446 0.6941758960 0.3331646364  Biso 1.0 C 9 b
C11 1.0000000000 0.8717787238 0.2724474722 0.5102821314  Biso 1.0 C 9 b
C12 1.0000000000 0.0617970852 0.4845048967 0.3588193918  Biso 1.0 C 9 b
C13 1.0000000000 0.1494086953 0.7507115523 0.6437370192  Biso 1.0 C 9 b
C14 1.0000000000 0.2443269872 0.8441688068 0.6413227275  Biso 1.0 C 9 b
C15 1.0000000000 0.9975071919 0.5934078336 0.3360689648  Biso 1.0 C 9 b
C16 1.0000000000 0.5148137439 0.9376079561 0.3607253301  Biso 1.0 C 9 b
H17 1.0000000000 0.3427468273 0.3096089776 0.5405517422  Biso 1.0 H 9 b
H18 1.0000000000 0.4511401593 0.0978095951 0.5177911198  Biso 1.0 H 9 b
H19 1.0000000000 0.2233300549 0.2384498052 0.4846446388  Biso 1.0 H 9 b
H20 1.0000000000 0.1121240046 0.6376335323 0.3805509884  Biso 1.0 H 9 b
H21 1.0000000000 0.3583181834 0.8879376997 0.3772212470  Biso 1.0 H 9 b
H22 1.0000000000 0.3132645050 0.4486847766 0.6250839603  Biso 1.0 H 9 b
H23 1.0000000000 0.2921099538 0.9839373252 0.4344035655  Biso 1.0 H 9 b
H24 1.0000000000 0.3965901735 0.9988705418 0.4614319696  Biso 1.0 H 9 b
H25 1.0000000000 0.3790979831 0.9212616044 0.6113515292  Biso 1.0 H 9 b
H26 1.0000000000 0.2928168170 0.7965114836 0.5950556314  Biso 1.0 H 9 b
N27 1.0000000000 0.3346215213 0.0085727827 0.4586315381  Biso 1.0 N 9 b
N28 1.0000000000 0.3162738558 0.8505969624 0.6157556747  Biso 1.0 N 9 b
O29 1.0000000000 0.1750304017 0.0029529991 0.4224823556  Biso 1.0 O 9 b
O30 1.0000000000 0.8409641771 0.5093030569 0.5802725498  Biso 1.0 O 9 b
O31 1.0000000000 0.5200073779 0.1973884717 0.5762971213  Biso 1.0 O 9 b
O32 1.0000000000 0.8594618267 0.0108567134 0.4269308005  Biso 1.0 O 9 b
O33 1.0000000000 0.0688239174 0.9278164099 0.3112218116  Biso 1.0 O 9 b
O34 1.0000000000 0.7076605282 0.9471944176 0.3613771843  Biso 1.0 O 9 b
O35 1.0000000000 0.2382568419 0.9419607648 0.3579214237  Biso 1.0 O 9 b
O36 1.0000000000 0.4270936898 0.0433749499 0.6412297807  Biso 1.0 O 9 b
O37 1.0000000000 0.6056956100 0.0380823085 0.6461622810  Biso 1.0 O 9 b
O38 1.0000000000 0.5956385682 0.1943541485 0.6920389374  Biso 1.0 O 9 b
Zr39 1.0000000000 0.0802082798 0.9153118784 0.3731429409  Biso 1.0 Zr 9 b
Zr40 1.0000000000 0.5831921363 0.1698121711 0.6302791052  Biso 1.0 Zr 9 b
