# AFLOW.org Repositories
# C48H24O30Zr6
data_C48H24O30Zr6
_pd_phase_name C48H24O30Zr6
_cell_length_a  14.9320675581
_cell_length_b  14.9320780370
_cell_length_c  35.2209916198
_cell_angle_alpha  90.0000535444
_cell_angle_beta  89.9999425209
_cell_angle_gamma  119.9999967918
_symmetry_space_group_name_H-M  'R-3'
_symmetry_Int_Tables_Number  148
loop_
 _symmetry_equiv_pos_site_id
 _symmetry_equiv_pos_as_xyz
  1  x,y,z
  2  -y,x-y,z
  3  -x+y,-x,z
  4  -x,-y,-z
  5  y,-x+y,-z
  6  x-y,x,-z
  7  x+2/3,y+1/3,z+1/3
  8  -y+2/3,x-y+1/3,z+1/3
  9  -x+y+2/3,-x+1/3,z+1/3
  10  -x+2/3,-y+1/3,-z+1/3
  11  y+2/3,-x+y+1/3,-z+1/3
  12  x-y+2/3,x+1/3,-z+1/3
  13  x+1/3,y+2/3,z+2/3
  14  -y+1/3,x-y+2/3,z+2/3
  15  -x+y+1/3,-x+2/3,z+2/3
  16  -x+1/3,-y+2/3,-z+2/3
  17  y+1/3,-x+y+2/3,-z+2/3
  18  x-y+1/3,x+2/3,-z+2/3
loop_
 _atom_site_label
 _atom_site_occupancy
 _atom_site_fract_x
 _atom_site_fract_y
 _atom_site_fract_z
 _atom_site_adp_type
 _atom_site_B_iso_or_equiv
 _atom_site_type_symbol
 _atom_site_symmetry_multiplicity
 _atom_site_Wyckoff_label
C1 1.0000000000 0.3293498658 0.3585776064 0.1677623655  Biso 1.0 C 18 f
C2 1.0000000000 0.8068060726 0.9092666255 0.3974640899  Biso 1.0 C 18 f
C3 1.0000000000 0.9327889340 0.4638285767 0.9688300746  Biso 1.0 C 18 f
C4 1.0000000000 0.6689380899 0.7407046944 0.8326946351  Biso 1.0 C 18 f
C5 1.0000000000 0.9810702366 0.4093408665 0.9815508037  Biso 1.0 C 18 f
C6 1.0000000000 0.5547280888 0.6025974409 0.0124687234  Biso 1.0 C 18 f
C7 1.0000000000 0.2722987369 0.0894608306 0.1405634849  Biso 1.0 C 18 f
C8 1.0000000000 0.1814410918 0.9113898989 0.8588045503  Biso 1.0 C 18 f
H9 1.0000000000 0.8031456849 0.7747825593 0.1204663772  Biso 1.0 H 18 f
H10 1.0000000000 0.0268690092 0.2212875612 0.8784262505  Biso 1.0 H 18 f
H11 1.0000000000 0.3735341589 0.0346875562 0.9667807785  Biso 1.0 H 18 f
H12 1.0000000000 0.3177148940 0.9136872917 0.0224741114  Biso 1.0 H 18 f
O13 1.0000000000 0.8395583758 0.3372069948 0.9219442830  Biso 1.0 O 18 f
O14 1.0000000000 0.4785467295 0.6577648221 0.0755132683  Biso 1.0 O 18 f
O15 1.0000000000 0.2814659428 0.9070197319 0.1408288029  Biso 1.0 O 18 f
O16 1.0000000000 0.3704454367 0.0974710534 0.8565188091  Biso 1.0 O 18 f
O17 1.0000000000 0.7351423976 0.2618516913 0.8095027924  Biso 1.0 O 18 f
Zr18 1.0000000000 0.7475871971 0.2492041779 0.8713920320  Biso 1.0 Zr 18 f
